
data_test

_cell_length_a                    10.000(3)
_cell_length_b                    10.000(2)
_cell_length_c                    10.000(2)
_cell_angle_alpha                 90
_cell_angle_beta                  90
_cell_angle_gamma                 90

loop_
_atom_site_label
_atom_site_type_symbol
_atom_site_fract_x
_atom_site_fract_y
_atom_site_fract_z
H1  H  0.0791(3)  0.0612(3)  0.0000(3)
O1  O  0.0000(3)  0.0000(3)  0.0000(3)
H2  H -0.0791(3)  0.0612(3)  0.0000(3)
